Version 4
SHEET 1 2192 824
WIRE 896 -160 768 -160
WIRE 1264 -160 896 -160
WIRE 1648 -160 1264 -160
WIRE 1232 -128 864 -128
WIRE 1232 -96 1232 -128
WIRE 1296 -96 1232 -96
WIRE 864 -64 864 -128
WIRE 944 -64 864 -64
WIRE 1296 -64 1216 -64
WIRE 1664 -64 1504 -64
WIRE 656 -32 560 -32
WIRE 944 -32 656 -32
WIRE 1264 -32 1264 -160
WIRE 1296 -32 1264 -32
WIRE 944 0 768 0
WIRE 1216 0 1216 -64
WIRE 1216 0 1136 0
WIRE 944 32 608 32
WIRE 896 64 896 -160
WIRE 944 64 896 64
WIRE 624 80 496 80
WIRE 1264 112 1200 112
WIRE 624 144 624 80
WIRE 1264 144 624 144
WIRE 768 176 768 0
WIRE 768 176 608 176
WIRE 1264 176 768 176
WIRE 1584 176 1520 176
WIRE 1264 208 1120 208
WIRE 896 240 896 64
WIRE 1264 240 896 240
WIRE 1712 256 1600 256
WIRE 1584 288 1584 176
WIRE 1712 288 1584 288
WIRE 1712 320 1680 320
WIRE 2016 320 1920 320
WIRE 1120 352 1120 208
WIRE 1120 352 608 352
WIRE 1664 352 1664 -64
WIRE 1712 352 1664 352
WIRE 1648 384 1648 -160
WIRE 1712 384 1648 384
WIRE 1200 416 1200 112
WIRE 1296 416 1200 416
WIRE 656 448 656 -32
WIRE 1296 448 656 448
WIRE 768 480 768 176
WIRE 1296 480 768 480
WIRE 1600 480 1600 256
WIRE 1600 480 1488 480
WIRE 1120 512 1120 352
WIRE 1296 512 1120 512
WIRE 896 544 896 240
WIRE 1296 544 896 544
WIRE 864 640 864 -64
WIRE 1200 640 1200 416
WIRE 1200 640 864 640
WIRE 1680 640 1680 320
WIRE 1680 640 1200 640
WIRE 1200 720 1200 640
FLAG 768 -160 vdd
IOPIN 768 -160 In
FLAG 2016 320 v_out_net
IOPIN 2016 320 Out
FLAG 1200 720 gnd
IOPIN 1200 720 In
FLAG 560 -32 i_ref_nmos_total
IOPIN 560 -32 In
FLAG 608 32 half_vdd
IOPIN 608 32 In
FLAG 608 176 v_in
IOPIN 608 176 In
FLAG 608 352 v_ref
IOPIN 608 352 In
FLAG 496 80 I_ref_pmos_neg
IOPIN 496 80 In
FLAG 1584 176 cp_out
FLAG 1600 480 cn_out
FLAG 1664 -64 select_inverter
SYMBOL analog_2_to_1mux 1808 320 R0
SYMATTR InstName X1
SYMBOL static_comparator_pmosbased_ckt 1392 176 R0
SYMATTR InstName X2
SYMBOL fast_inverterCKT 1392 -64 R0
SYMATTR InstName X3
SYMBOL static_comparator_nmos_based_ckt 1392 480 R0
SYMATTR InstName X4
SYMBOL static_comparator_nmos_based_ckt 1040 0 R0
SYMATTR InstName X5
TEXT 1376 280 Left 2 ;Cp
TEXT 920 104 Left 2 ;selective comp
TEXT 1720 440 Left 2 ;analog 2x1 mux
TEXT 1256 600 Left 2 ;Cn
TEXT 1320 -184 Left 2 ;fast inverter
TEXT 440 -80 Left 2 ;10uA
TEXT 304 48 Left 2 ;-5uA
